   18
[name  x   y  z  chg]
O       8.707172158e-01  -1.720661566e+00  -4.814067179e-01   -0.80852 
H       1.689789528e+00  -1.221338203e+00  -3.052747557e-01    0.43090  
H       1.142438797e+00  -2.587969761e+00  -7.799456175e-01    0.37762
O      -7.398283056e-01   4.040418183e-01  -1.654300203e+00   -0.87270
H      -2.723133426e-01  -4.319081553e-01  -1.528862134e+00    0.41814
H      -1.614078540e+00   2.476812916e-01  -1.263515900e+00    0.45456 
O       5.830098634e-01   1.747649029e+00   2.374118142e-01   -0.82369
H       6.763772708e-02   1.388446541e+00  -5.225068626e-01    0.48143
H       4.921571765e-01   2.699373871e+00   1.984531638e-01    0.34226
O      -6.913716823e-01  -4.866230560e-01   1.662094357e+00   -0.83501 
H      -1.966956586e-01  -1.092424055e+00   1.095426341e+00    0.41222
H      -2.750255599e-01   3.667626592e-01   1.487915248e+00    0.42279
O       2.806577430e+00   1.078807054e-01   1.105409846e-01   -0.80161
H       2.167450080e+00   8.356004598e-01   1.980781347e-01    0.41908
H       3.312598851e+00   1.076955035e-01   9.236267319e-01    0.38253
O      -2.902521997e+00   4.487878460e-03   7.438771560e-02   -0.82897
H      -2.270920381e+00  -2.485516133e-01   7.714953391e-01    0.43249
H      -3.659225202e+00  -5.711763469e-01   1.767583601e-01    0.39648
